
 OpenBabel03041911593D

 24 25  0  0  0  0  0  0  0  0999 V2000
   -0.6369   -1.0593   -2.7817 O   0  0  0  0  0  0  0  0  0  0  0  0
   -1.1430   -0.2151   -2.0569 C   0  0  0  0  0  0  0  0  0  0  0  0
   -0.4208    0.7021   -1.3302 N   0  0  0  0  0  0  0  0  0  0  0  0
   -2.5140   -0.1260   -1.9233 N   0  0  0  0  0  0  0  0  0  0  0  0
   -3.1636    0.9354   -1.2364 C   0  0  0  0  0  0  0  0  0  0  0  0
   -4.0158    0.6744   -0.1761 C   0  0  0  0  0  0  0  0  0  0  0  0
   -4.2595   -0.7304    0.2638 C   0  0  0  0  0  0  0  0  0  0  0  0
   -3.2426   -1.4597    0.8716 C   0  0  0  0  0  0  0  0  0  0  0  0
   -2.0151   -0.8430    1.1217 N   0  0  0  0  0  0  0  0  0  0  0  0
   -0.7968   -1.4851    1.1990 C   0  0  0  0  0  0  0  0  0  0  0  0
   -0.6408   -2.6877    1.0655 O   0  0  0  0  0  0  0  0  0  0  0  0
    0.2221   -0.5916    1.4501 N   0  0  0  0  0  0  0  0  0  0  0  0
   -3.4790   -2.8099    1.2726 C   0  0  0  0  0  0  0  0  0  0  0  0
   -4.6923   -3.4006    1.0455 C   0  0  0  0  0  0  0  0  0  0  0  0
   -5.7504   -2.6952    0.4109 C   0  0  0  0  0  0  0  0  0  0  0  0
   -5.5304   -1.3432    0.0184 C   0  0  0  0  0  0  0  0  0  0  0  0
   -4.6505    1.7701    0.4994 C   0  0  0  0  0  0  0  0  0  0  0  0
   -4.4147    3.1041    0.0561 C   0  0  0  0  0  0  0  0  0  0  0  0
   -3.5511    3.3231   -1.0528 C   0  0  0  0  0  0  0  0  0  0  0  0
   -2.9438    2.2700   -1.6798 C   0  0  0  0  0  0  0  0  0  0  0  0
   -1.9631    0.1884    1.0994 H   0  0  0  0  0  0  0  0  0  0  0  0
   -0.0728    0.4085    1.4494 H   0  0  0  0  0  0  0  0  0  0  0  0
   -0.8613    1.2304   -0.5479 H   0  0  0  0  0  0  0  0  0  0  0  0
   -3.2982   -1.1679   -2.5758 H   0  0  0  0  0  0  0  0  0  0  0  0
  1  2  2  0  0  0  0
  2  4  1  0  0  0  0
  2  3  1  0  0  0  0
  3 23  1  0  0  0  0
  4  5  1  0  0  0  0
  5  6  1  0  0  0  0
  6  7  1  0  0  0  0
  6 17  2  0  0  0  0
  7  8  1  0  0  0  0
  8  9  1  0  0  0  0
  8 13  2  0  0  0  0
  9 10  1  0  0  0  0
 10 12  1  0  0  0  0
 11 10  2  0  0  0  0
 14 13  1  0  0  0  0
 15 14  2  0  0  0  0
 16  7  2  0  0  0  0
 16 15  1  0  0  0  0
 18 17  1  0  0  0  0
 19 18  2  0  0  0  0
 20  5  2  0  0  0  0
 20 19  1  0  0  0  0
 21  9  1  0  0  0  0
 22 12  1  0  0  0  0
 24  4  1  0  0  0  0
M  END
$$$$
